/*--------------------------------*- C++ -*----------------------------------*\
  =========                 |
  \\      /  F ield         | OpenFOAM: The Open Source CFD Toolbox
   \\    /   O peration     | Website:  https://openfoam.org
    \\  /    A nd           | Version:  6
     \\/     M anipulation  |
\*---------------------------------------------------------------------------*/
FoamFile
{
    version     2.0;
    format      ascii;
    class       volVectorField;
    location    "0";
    object      lm_b;
}
// * * * * * * * * * * * * * * * * * * * * * * * * * * * * * * * * * * * * * //

#include "../constant/runParameters"
#include "../constant/mechanicalProperties"

dimensions      [1 -2 -1 0 0 0 0];

internalField   uniform (0 0 0);

boundaryField
{
    fixed
    {
        type            fixedValue;
        value           uniform (0 0 0);
    }
    free
    {
        type            tractionLinearMomentum;
        value           uniform (0 0 0);
    }
    symmetric
    {
        type            symmetricLinearMomentum;
        value           uniform (0 0 0);
    }
    loading
    {
        type            movingDisplacementLinearMomentum;
        density         $rho;
        displacement    $uMax;
        endTime         $tEnd;
        value           uniform (0 0 0);
    }
}

// ************************************************************************* //