/*--------------------------------*- C++ -*----------------------------------*\
| =========                 |                                                 |
| \\      /  F ield         | OpenFOAM: The Open Source CFD Toolbox           |
|  \\    /   O peration     | Version:  5.x                                   |
|   \\  /    A nd           | Web:      www.OpenFOAM.org                      |
|    \\/     M anipulation  |                                                 |
\*---------------------------------------------------------------------------*/
FoamFile
{
    version     2.0;
    format      ascii;
    class       volVectorField;
    location    "0";
    object      t_b;
}
// * * * * * * * * * * * * * * * * * * * * * * * * * * * * * * * * * * * * * //

#include "../constant/runParameters"
#include "../constant/mechanicalProperties"
#include "../system/controlDict"

dimensions      [1 -1 -2 0 0 0 0];

internalField   uniform (0 0 0);

boundaryField
{
    fixed
    {
        type            movingTraction;
        value           uniform (0 0 0);
    }
    free
    {
        type            fixedValue;
        value           uniform (0 0 0);
    }
    symmetric
    {
        type            symmetricTraction;
        value           uniform (0 0 0);
    }
    loading
    {
        type            movingDisplacementTraction;
        density         $density;
        displacement    (0 $displacement 0);
        endTime         $endTime;
        value           uniform (0 0 0);
    }
}


// ************************************************************************* //
