/*--------------------------------*- C++ -*----------------------------------*\
  =========                 |
  \\      /  F ield         | OpenFOAM: The Open Source CFD Toolbox
   \\    /   O peration     | Website:  https://openfoam.org
    \\  /    A nd           | Version:  6
     \\/     M anipulation  |
\*---------------------------------------------------------------------------*/
FoamFile
{
    version     2.0;
    format      ascii;
    class       dictionary;
    location    "constant";
    object      runParameters;
}
// * * * * * * * * * * * * * * * * * * * * * * * * * * * * * * * * * * * * * //

tutorial        crushingCylinder;
meshFile        crushingCylinder_1600.msh;
density         1000;
displacement    -0.0045;

// ************************************************************************* //