/*--------------------------------*- C++ -*----------------------------------*\
  =========                 |
  \\      /  F ield         | OpenFOAM: The Open Source CFD Toolbox
   \\    /   O peration     | Website:  https://openfoam.org
    \\  /    A nd           | Version:  6
     \\/     M anipulation  |
\*---------------------------------------------------------------------------*/
FoamFile
{
    version     2.0;
    format      ascii;
    class       pointVectorField;
    location    "0";
    object      lmN;
}
// * * * * * * * * * * * * * * * * * * * * * * * * * * * * * * * * * * * * * //

dimensions      [1 -2 -1 0 0 0 0];

internalField   uniform (0 0 0);

boundaryField
{
    symmetricY
    {
        type            zeroGradient;
    }

    free
    {
        type            zeroGradient;
    }

    free_loading
    {
        type            zeroGradient;
    }

    symmetricX
    {
        type            zeroGradient;
    }

    symmetricZ
    {
        type            zeroGradient;
    }
}

// ************************************************************************* //